*MODEL INPUT FILE            N     1     1     1   999     0
*FILES              
MODEL          MZCER047
FILEX          deleteme.SNX ./                                                                              
FILEA          deleteme.SNA ./                                                                              
FILET          deleteme.SNT ./                                                                              
SPECIES        MZCER047.SPE                                                                                 
ECOTYPE        MZCER047.ECO                                                                                 
CULTIVAR       MZCER047.CUL                                                                                 
PESTS          MZCER047.PST //./                                                                            
SOILS          HN.SOL                                                                                       
WEATHER        RRRR.WTH     ./                                                                              
OUTPUT         OVERVIEW
*SIMULATION CONTROL 
                   9     1     S 2001277  1234 template simulation name 
                   Y     Y     N     N     N     N     N     N     D
                   G     M     E     R     S     C     R     1     P     S     2     D     0
                   R     N     D     N     M
                   N     N     Y     1     N     N     N     N     N     N     N     N     N
!AUTOMATIC MANAGEM  
               2002002 2002005   30.   95.   70.   50.    7.
                 20.   70.  100.   -99 IR001   0.0 0.000
                -99.  -99.  -99.   -99   -99
                -99.   -99  -99.
                   -99     -99  100.    0.
*EXP.DETAILS        
  1deleteme SN ainfed template. but everything should always be checked    
*TREATMENTS         
  1 1 1 0 RI                       
*CULTIVARS          
   MZ IB0041 Garst 8808      
*FIELDS             
   GRID     RRRR.WTH   0.0  -99.   -99  -99. 100.0   -99 L      -99. HN_GEN0011
         -99.00000       -99.00000    -99.00               1.0  100.   1.0 -99.0           0
*INITIAL CONDITIONS 
   99    2001277  1000     0  1.00  1.00   0.0  3000  0.60  0.00  100.    5.
      5. 0.203   0.0  10.7
     15. 0.208   0.0  10.7
     30. 0.213   0.0  10.7
     45. 0.220   0.0  3.57
     60. 0.220   0.0  3.57
     90. 0.240   0.0   0.0
    100. 0.267   0.0   0.0
*PLANTING DETAILS   
   2002002     -99   5.3   5.3     S     R   75.    0.   3.0  -99.  -99. -99.0 -99.0 -99.0
*IRRIGATION         
   1.000    0.    0.    0. GS000 IR001   0.0
*FERTILIZERS        
         1 FE005 AP001    1.   83.  -99.  -99.  -99.  -99.   -99
        31 FE005 AP002    5.   83.  -99.  -99.  -99.  -99.   -99
       217 FE005 AP002    5.   84.  -99.  -99.  -99.  -99.   -99
*RESIDUES           
*CHEMICALS          
*TILLAGE            
*ENVIRONMENT        
   2001277 A 0.0 A 0.0 A 0.0 A 0.0 A 0.0 R 379 A 0.0 A 0.0
*HARVEST            
*SOIL               
 HN_GEN0011  WISE        L      -99. HvCh DATABASE, Loam HF120                         
 -99         Generic       0.000   0.000 Loam medm (HF)                                    
 BK     0.10   6.0  0.50   75.  1.00  0.92 SA001 SA001 SA001 -99  
    5.       0.170 0.301 0.400 1.000  4.00  1.40 2.000  22.0  45.0 -99.0 0.120  6.50-99.00-99.00-99.00
   15.       0.175 0.305 0.405 0.850  2.90  1.40 1.620  22.0  45.0 -99.0 0.095  6.50-99.00-99.00-99.00
   30.       0.180 0.310 0.410 0.700  1.80  1.40 1.240  22.0  45.0 -99.0 0.070  6.50-99.00-99.00-99.00
   45.       0.190 0.310 0.420 0.500  1.60  1.40 0.980  22.0  45.0 -99.0 0.060  6.50-99.00-99.00-99.00
   60.       0.190 0.310 0.420 0.500  1.60  1.40 0.980  22.0  45.0 -99.0 0.060  6.50-99.00-99.00-99.00
   90.       0.215 0.315 0.430 0.400  1.50  1.40 0.900  22.0  45.0 -99.0 0.050  6.50-99.00-99.00-99.00
  100.       0.250 0.317 0.440 0.300  1.40  1.40 0.860  22.0  45.0 -99.0 0.050  6.50-99.00-99.00-99.00
                    
    5.-99.00 -99.0 -99.0 -99.0 -99.0 -99.0 -99.0 -99.0 -99.0 -99.0-99.00 -99.0 -99.0 -99.0 -99.0 -99.0 1.860
   15.-99.00 -99.0 -99.0 -99.0 -99.0 -99.0 -99.0 -99.0 -99.0 -99.0-99.00 -99.0 -99.0 -99.0 -99.0 -99.0 1.522
   30.-99.00 -99.0 -99.0 -99.0 -99.0 -99.0 -99.0 -99.0 -99.0 -99.0-99.00 -99.0 -99.0 -99.0 -99.0 -99.0 1.184
   45.-99.00 -99.0 -99.0 -99.0 -99.0 -99.0 -99.0 -99.0 -99.0 -99.0-99.00 -99.0 -99.0 -99.0 -99.0 -99.0 0.960
   60.-99.00 -99.0 -99.0 -99.0 -99.0 -99.0 -99.0 -99.0 -99.0 -99.0-99.00 -99.0 -99.0 -99.0 -99.0 -99.0 0.960
   90.-99.00 -99.0 -99.0 -99.0 -99.0 -99.0 -99.0 -99.0 -99.0 -99.0-99.00 -99.0 -99.0 -99.0 -99.0 -99.0 0.882
  100.-99.00 -99.0 -99.0 -99.0 -99.0 -99.0 -99.0 -99.0 -99.0 -99.0-99.00 -99.0 -99.0 -99.0 -99.0 -99.0 0.843
                    
    5.-99.00-99.00-99.00-99.00
   15.-99.00-99.00-99.00-99.00
   30.-99.00-99.00-99.00-99.00
   45.-99.00-99.00-99.00-99.00
   60.-99.00-99.00-99.00-99.00
   90.-99.00-99.00-99.00-99.00
  100.-99.00-99.00-99.00-99.00
*CULTIVAR           
IB0041 Garst 8808       IB0001  220.0 0.400 780.0 858.0  8.50 38.90
