*EXP.DETAILS: HSCE0701WH HOT SERIES CEREAL EXPERIMENT- TO USE FOR SIMPLE B MODEL 05/19/2017

*GENERAL
@PEOPLE
Belay & Senthold
@ADDRESS
 USDA ARS, Arid Land Agricultural Center
@SITE
 Maricopa

*TREATMENTS                        -------------FACTOR LEVELS------------
@N R O C TNAME.................... CU FL SA IC MP MI MF MR MC MT ME MH SM
 1 1 1 0 01DEC08 C_T70              1  1  1  1  1 36 15  0  0  0  0 14 14

*CULTIVARS
@C CR INGENO CNAME
 1 WH IB0001 YECORA

*FIELDS
@L ID_FIELD WSTA....  FLSA  FLOB  FLDT  FLDD  FLDS  FLST SLTX  SLDP  ID_SOIL    FLNAME
 1 AZHS0001 RRRR       -99   -99   -99   -99   -99   -99 CL     -99  HN_GEN0001 AZ01
 2 AZHS0003 AZ610801   -99   -99   -99   -99   -99   -99 CL     -99  IB00000001 AZ02
 3 AZHS0005 AZ310801   -99   -99   -99   -99   -99   -99 CL     -99  IB00000001 AZ03
 4 AZHS0008 AZ440801   -99   -99   -99   -99   -99   -99 CL     -99  IB00000001 AZ04
 5 AZHS0010 AZ110701   -99   -99   -99   -99   -99   -99 CL     -99  IB00000001 AZ05
! 1 AZHS0001 AZ000701   -99   -99   -99   -99   -99   -99 CL     -99  IB00000001 AZ01

@L ...........XCRD ...........YCRD .....ELEV .............AREA .SLEN .FLWR .SLAS FLHST FHDUR
 1         -114.53          33.069       361               -99   -99   -99   -99   -99   -99
 2         -114.53          33.069       361               -99   -99   -99   -99   -99   -99
 3         -114.53          33.069       361               -99   -99   -99   -99   -99   -99
 4         -114.53          33.069       361               -99   -99   -99   -99   -99   -99
 5         -114.53          33.069       361               -99   -99   -99   -99   -99   -99
 6         -114.53          33.069       361               -99   -99   -99   -99   -99   -99
 7         -114.53          33.069       361               -99   -99   -99   -99   -99   -99
 8         -114.53          33.069       361               -99   -99   -99   -99   -99   -99
 9         -114.53          33.069       361               -99   -99   -99   -99   -99   -99
10         -114.53          33.069       361               -99   -99   -99   -99   -99   -99
11         -114.53          33.069       361               -99   -99   -99   -99   -99   -99
12         -114.53          33.069       361               -99   -99   -99   -99   -99   -99
13         -114.53          33.069       361               -99   -99   -99   -99   -99   -99
14         -114.53          33.069       361               -99   -99   -99   -99   -99   -99
15         -114.53          33.069       361               -99   -99   -99   -99   -99   -99
16         -114.53          33.069       361               -99   -99   -99   -99   -99   -99
17         -114.53          33.069       361               -99   -99   -99   -99   -99   -99
18         -114.53          33.069       361               -99   -99   -99   -99   -99   -99
19         -114.53          33.069       361               -99   -99   -99   -99   -99   -99

*SOIL ANALYSIS
@A SADAT  SMHB  SMPX  SMKE  SANAME
 1   -99   -99   -99   -99  -99
@A  SABL  SADM  SAOC  SANI SAPHW SAPHB  SAPX  SAKE  SASC
 1     5   -99   .41   -99   -99   -99   -99   -99   .23
 1    15   -99   .35   -99   -99   -99   -99   -99   .19
 1    30   -99   .27   -99   -99   -99   -99   -99   .17
 1    50   -99   .24   -99   -99   -99   -99   -99   .22
 1    60   -99   .16   -99   -99   -99   -99   -99   .16
 1    70   -99   .16   -99   -99   -99   -99   -99   .16
 1    90   -99    .3   -99   -99   -99   -99   -99   .29
 1   110   -99    .1   -99   -99   -99   -99   -99    .1
 1   120   -99    .1   -99   -99   -99   -99   -99    .1
 1   130   -99    .1   -99   -99   -99   -99   -99    .1
 1   150   -99     0   -99   -99   -99   -99   -99     0
 1   170   -99     0   -99   -99   -99   -99   -99     0
 1   190   -99     0   -99   -99   -99   -99   -99     0
 1   210   -99     0   -99   -99   -99   -99   -99     0

*INITIAL CONDITIONS
@C   PCR ICDAT  ICRT  ICND  ICRN  ICRE  ICWD ICRES ICREN ICREP ICRIP ICRID ICNAME
 1    WH 07042  1500   -99   -99   -99   -99  3000   -99   -99   -99   -99 -99
@C  ICBL  SH2O  SNH4  SNO3
 1     5  .202    10  24.9
 1    15  .202    10  24.9
 1    30  .319    10    16
 1    50  .318    10   9.8
 1    60  .318    10   9.8
 1    70  .318    10   2.1
 1    90  .299    10   2.1
 1   110  .275    10   2.1
 1   120  .275    10   2.1
 1   130  .275    10    .2
 1   150  .254    10    .2
 1   170  .254     5    .2
 1   190  .244     5    .2
 1   210  .244     5    .2

*PLANTING DETAILS
@P PDATE EDATE  PPOP  PPOE  PLME  PLDS  PLRS  PLRD  PLDP  PLWT  PAGE  PENV  PLPH  SPRL                        PLNAME
 1 08336   -99   265   265     S     R    19   -99   2.5   -99   -99   -99   -99   -99                        -99
 2 08002   -99   320   320     S     R    19   -99   2.5   -99   -99   -99   -99   -99                        -99
 3 08336   -99   276   276     S     R    19   -99   2.5   -99   -99   -99   -99   -99                        -99
 4 09012   -99   310   310     S     R    19   -99   2.5   -99   -99   -99   -99   -99                        -99
 5 08002   -99   297   297     S     R    19   -99   2.5   -99   -99   -99   -99   -99                        -99
 6 08044   -99   302   302     S     R    19   -99   2.5   -99   -99   -99   -99   -99                        -99
 7 08070   -99   323   323     S     R    19   -99   2.5   -99   -99   -99   -99   -99                        -99
 8 08070   -99   273   273     S     R    19   -99   2.5   -99   -99   -99   -99   -99                        -99
 9 07072   -99   297   297     S     R    19   -99   2.5   -99   -99   -99   -99   -99                        -99
10 07072   -99   144   144     S     R    19   -99   2.5   -99   -99   -99   -99   -99                        -99
11 08119   -99    37    37     S     R    19   -99   2.5   -99   -99   -99   -99   -99                        -99
12 07109   -99   325   325     S     R    19   -99   2.5   -99   -99   -99   -99   -99                        -99
13 08238   -99   221   221     S     R    19   -99   2.5   -99   -99   -99   -99   -99                        -99
14 07206   -99   199   199     S     R    19   -99   2.5   -99   -99   -99   -99   -99                        -99
15 07163   -99   297   297     S     R    19   -99   2.5   -99   -99   -99   -99   -99                        -99


*IRRIGATION AND WATER MANAGEMENT
@I  EFIR  IDEP  ITHR  IEPT  IOFF  IAME  IAMT IRNAME
 1   -99   -99   -99   -99   -99   -99   -99 -99
@I IDATE  IROP IRVAL
 1 07078 IR006  94.1
 1 07086 IR006   9.7
 1 07087 IR006    10
 1 07094 IR006  32.3
 1 07102 IR006  19.1
 1 07103 IR006  19.9
 1 07113 IR006   9.4
 1 07114 IR006  27.6
 1 07115 IR006  40.2
 1 07116 IR006  34.4
 1 07122 IR006  27.8
 1 07123 IR006  45.5
 1 07124 IR006  26.5
 1 07130 IR006  16.9
 1 07131 IR006  40.5
 1 07132 IR006  29.7
 1 07138 IR006    57
 1 07143 IR006  37.1
 1 07144 IR006  31.7
 1 07152 IR006  57.2
@I  EFIR  IDEP  ITHR  IEPT  IOFF  IAME  IAMT IRNAME
 2   -99   -99   -99   -99   -99   -99   -99 -99
@I IDATE  IROP IRVAL
 2 07080 IR006  94.1
 2 07086 IR006   8.6
 2 07087 IR006   8.5
 2 07094 IR006  31.1
 2 07102 IR006  16.6
 2 07103 IR006    17
 2 07113 IR006   8.2
 2 07114 IR006  23.3
 2 07115 IR006  34.2
 2 07116 IR006  20.4
 2 07122 IR006  23.5
 2 07123 IR006  37.6
 2 07124 IR006  22.3
 2 07130 IR006  14.4
 2 07131 IR006  36.9
 2 07132 IR006  25.2
 2 07138 IR006  48.5
 2 07143 IR006  31.3
 2 07144 IR006  44.1
 2 07145 IR006   2.4
 2 07152 IR006  47.7
@I  EFIR  IDEP  ITHR  IEPT  IOFF  IAME  IAMT IRNAME
 3   -99   -99   -99   -99   -99   -99   -99 -99
@I IDATE  IROP IRVAL
 3 07080 IR006  94.1
 3 07086 IR006   7.7
 3 07087 IR006   7.9
 3 07094 IR006  32.7
 3 07102 IR006  15.5
 3 07103 IR006  16.1
 3 07113 IR006   8.5
 3 07114 IR006  21.6
 3 07115 IR006  31.9
 3 07116 IR006  36.1
 3 07122 IR006  21.3
 3 07123 IR006  35.2
 3 07124 IR006  20.3
 3 07130 IR006  13.1
 3 07131 IR006  32.5
 3 07132 IR006    22
 3 07138 IR006  43.9
 3 07143 IR006  27.9
 3 07144 IR006  39.8
 3 07145 IR006    14
 3 07152 IR006    43
@I  EFIR  IDEP  ITHR  IEPT  IOFF  IAME  IAMT IRNAME
 4   -99   -99   -99   -99   -99   -99   -99 -99
@I IDATE  IROP IRVAL
 4 07113 IR006   4.1
 4 07114 IR006  55.7
 4 07115 IR006  48.1
 4 07116 IR006  42.5
 4 07123 IR006  42.4
 4 07124 IR006  28.1
 4 07130 IR006  18.2
 4 07131 IR006  25.6
 4 07138 IR006  47.5
 4 07143 IR006  40.4
 4 07144 IR006  11.4
 4 07151 IR006    42
 4 07152 IR006   9.3
 4 07156 IR006  49.1
 4 07157 IR006  48.6
 4 07163 IR006  46.6
 4 07166 IR006  48.7
 4 07172 IR006  47.6
 4 07178 IR006    42
@I  EFIR  IDEP  ITHR  IEPT  IOFF  IAME  IAMT IRNAME
 5   -99   -99   -99   -99   -99   -99   -99 -99
@I IDATE  IROP IRVAL
 5 07170 IR006 154.9
 5 07171 IR006 123.9
 5 07173 IR006  55.6
 5 07177 IR006  37.1
 5 07180 IR006  38.8
 5 07184 IR006  46.8
 5 07187 IR006  43.3
 5 07192 IR006  25.5
 5 07194 IR006  36.5
@I  EFIR  IDEP  ITHR  IEPT  IOFF  IAME  IAMT IRNAME
 6   -99   -99   -99   -99   -99   -99   -99 -99
@I IDATE  IROP IRVAL
 6 07236 IR006  46.5
 6 07243 IR006  39.1
 6 07208 IR006  62.8
 6 07213 IR006  41.8
 6 07220 IR006    50
 6 07229 IR006  58.1
@I  EFIR  IDEP  ITHR  IEPT  IOFF  IAME  IAMT IRNAME
 7   -99   -99   -99   -99   -99   -99   -99 -99
@I IDATE  IROP IRVAL
 7 07269 IR006  16.9
 7 07270 IR006  31.2
 7 07271 IR006  24.3
 7 07274 IR006  50.5
 7 07277 IR006  21.1
 7 07278 IR006  32.4
 7 07283 IR006   9.5
 7 07283 IR006  15.6
 7 07284 IR006  35.7
 7 07285 IR006  32.1
 7 07292 IR006  37.3
 7 07298 IR006  50.9
 7 07299 IR006    37
 7 07306 IR006  36.9
 7 07313 IR006    25
 7 07320 IR006    24
 7 07327 IR006  24.1
 7 07362 IR006  35.1
 7 08011 IR006  30.2
 7 08025 IR006  30.5
 7 08038 IR006  29.2
@I  EFIR  IDEP  ITHR  IEPT  IOFF  IAME  IAMT IRNAME
 8   -99   -99   -99   -99   -99   -99   -99 -99
@I IDATE  IROP IRVAL
 8 07269 IR006  27.8
 8 07270 IR006    55
 8 07271 IR006  42.6
 8 07274 IR006   1.8
 8 07277 IR006  21.3
 8 07278 IR006  31.9
 8 07283 IR006  15.7
 8 07283 IR006   9.5
 8 07284 IR006    26
 8 07285 IR006  43.8
 8 07292 IR006  37.9
 8 07298 IR006  50.7
 8 07299 IR006  36.7
 8 07306 IR006  36.2
 8 07313 IR006  23.6
 8 07320 IR006  23.4
 8 07327 IR006  23.7
 8 07362 IR006  34.7
 8 08011 IR006  30.2
 8 08025 IR006  30.2
 8 08038 IR006  30.3
@I  EFIR  IDEP  ITHR  IEPT  IOFF  IAME  IAMT IRNAME
 9   -99   -99   -99   -99   -99   -99   -99 -99
@I IDATE  IROP IRVAL
 9 07269 IR006  26.5
 9 07270 IR006  52.7
 9 07271 IR006  39.9
 9 07274 IR006   1.7
 9 07277 IR006  20.6
 9 07278 IR006  31.2
 9 07283 IR006   9.5
 9 07283 IR006  15.7
 9 07284 IR006    26
 9 07285 IR006  43.8
 9 07292 IR006  37.3
 9 07298 IR006  50.9
 9 07299 IR006    37
 9 07306 IR006  36.9
 9 07313 IR006    25
 9 07320 IR006    24
 9 07327 IR006  24.1
 9 07362 IR006  35.1
 9 08011 IR006  30.2
 9 08025 IR006  30.5
 9 08038 IR006  29.2
@I  EFIR  IDEP  ITHR  IEPT  IOFF  IAME  IAMT IRNAME
10   -99   -99   -99   -99   -99   -99   -99 -99
@I IDATE  IROP IRVAL
10 07269 IR006  16.9
10 07270 IR006  31.2
10 07271 IR006  24.3
10 07274 IR006  50.5
10 07277 IR006  21.1
10 07278 IR006  32.4
10 07283 IR006  15.6
10 07283 IR006   9.5
10 07284 IR006  35.7
10 07285 IR006  32.1
10 07292 IR006  37.3
10 07298 IR006  50.9
10 07299 IR006    37
10 07306 IR006  36.9
10 07306 IR006   3.6
10 07313 IR006    25
10 07313 IR006   2.6
10 07320 IR006    24
10 07320 IR006   2.8
10 07327 IR006  24.1
10 07327 IR006   2.7
10 07362 IR006  35.1
10 07362 IR006   4.1
10 08011 IR006     4
10 08011 IR006  30.2
10 08025 IR006  30.5
10 08038 IR006  29.2
10 08038 IR006  12.1
@I  EFIR  IDEP  ITHR  IEPT  IOFF  IAME  IAMT IRNAME
11   -99   -99   -99   -99   -99   -99   -99 -99
@I IDATE  IROP IRVAL
11 07269 IR006  27.8
11 07270 IR006    55
11 07271 IR006  42.6
11 07274 IR006   1.8
11 07277 IR006  21.3
11 07278 IR006  31.9
11 07283 IR006  15.7
11 07283 IR006   9.5
11 07284 IR006    26
11 07285 IR006  43.8
11 07292 IR006  37.9
11 07298 IR006  50.7
11 07299 IR006  36.7
11 07306 IR006  36.2
11 07306 IR006     4
11 07313 IR006  23.6
11 07313 IR006   2.7
11 07320 IR006  23.4
11 07320 IR006   2.2
11 07327 IR006  23.7
11 07327 IR006   2.7
11 07362 IR006  34.7
11 07362 IR006   4.5
11 08011 IR006     4
11 08011 IR006  30.2
11 08025 IR006  30.2
11 08038 IR006  30.3
11 08038 IR006   3.8
@I  EFIR  IDEP  ITHR  IEPT  IOFF  IAME  IAMT IRNAME
12   -99   -99   -99   -99   -99   -99   -99 -99
@I IDATE  IROP IRVAL
12 07269 IR006  26.5
12 07270 IR006  52.7
12 07271 IR006  39.9
12 07274 IR006   1.7
12 07277 IR006  20.6
12 07278 IR006  31.2
12 07283 IR006  15.7
12 07283 IR006   9.5
12 07284 IR006    26
12 07285 IR006  43.8
12 07292 IR006  37.3
12 07298 IR006  50.9
12 07299 IR006    37
12 07306 IR006  36.9
12 07306 IR006     8
12 07313 IR006    25
12 07313 IR006   2.7
12 07320 IR006    24
12 07320 IR006   2.2
12 07327 IR006  24.1
12 07327 IR006   2.7
12 07362 IR006  35.1
12 07362 IR006   4.8
12 08011 IR006   4.2
12 08011 IR006  30.2
12 08025 IR006  30.5
12 08038 IR006  29.2
12 08038 IR006   3.7
@I  EFIR  IDEP  ITHR  IEPT  IOFF  IAME  IAMT IRNAME
13   -99   -99   -99   -99   -99   -99   -99 -99
@I IDATE  IROP IRVAL
13 07305 IR006  90.8
13 07306 IR006  88.7
13 07310 IR004  23.2
13 07316 IR004  12.1
13 07320 IR004   8.5
13 07323 IR004   8.2
13 07325 IR006  33.9
13 07362 IR006  34.3
13 08011 IR006  30.6
13 08025 IR006  29.9
13 08038 IR006  30.2
13 08043 IR006  22.2
13 08052 IR006  37.5
13 08059 IR006    30
13 08070 IR006    36
13 08074 IR006  32.5
13 08081 IR006    40
13 08087 IR006  42.1
13 08095 IR006  49.5
13 08101 IR006  55.1
13 08108 IR006  45.9
@I  EFIR  IDEP  ITHR  IEPT  IOFF  IAME  IAMT IRNAME
14   -99   -99   -99   -99   -99   -99   -99 -99
@I IDATE  IROP IRVAL
14 08004 IR006  24.1
14 08005 IR006    48
14 08010 IR006  30.6
14 08011 IR006  21.5
14 08018 IR006  37.6
14 08025 IR006  36.9
14 08038 IR006  15.7
14 08044 IR006  22.2
14 08045 IR006     9
14 08053 IR006    22
14 08059 IR006  66.4
14 08067 IR006  48.6
14 08073 IR006    17
14 08074 IR006  15.9
14 08081 IR006  39.4
14 08088 IR006  48.4
14 08094 IR006  59.5
14 08101 IR006    58
14 08108 IR006  56.2
14 08115 IR006  45.4
14 08122 IR006  87.8
14 08129 IR006  57.8
@I  EFIR  IDEP  ITHR  IEPT  IOFF  IAME  IAMT IRNAME
15   -99   -99   -99   -99   -99   -99   -99 -99
@I IDATE  IROP IRVAL
15 08004 IR006  24.3
15 08005 IR006  56.8
15 08010 IR006  35.9
15 08011 IR006  21.2
15 08018 IR006  37.5
15 08025 IR006  29.9
15 08038 IR006  17.9
15 08044 IR006  22.4
15 08045 IR006  13.8
15 08053 IR006  22.4
15 08059 IR006  44.9
15 08067 IR006  49.8
15 08073 IR006  16.9
15 08074 IR006  16.2
15 08081 IR006  40.4
15 08088 IR006  48.2
15 08094 IR006  58.8
15 08101 IR006  58.5
15 08108 IR006    61
15 08115 IR006  53.8
15 08122 IR006  72.8
15 08129 IR006  59.6
@I  EFIR  IDEP  ITHR  IEPT  IOFF  IAME  IAMT IRNAME
16   -99   -99   -99   -99   -99   -99   -99 -99
@I IDATE  IROP IRVAL
16 08004 IR006  22.6
16 08005 IR006  54.6
16 08010 IR006  36.7
16 08011 IR006  21.8
16 08018 IR006  40.4
16 08025 IR006  41.5
16 08038 IR006  19.8
16 08044 IR006  24.6
16 08053 IR006    24
16 08059 IR006  60.2
16 08067 IR006  32.5
16 08073 IR006  19.9
16 08074 IR006    18
16 08081 IR006  34.1
16 08088 IR006  51.7
16 08094 IR006  58.8
16 08101 IR006  60.1
16 08108 IR006  56.2
16 08115 IR006  52.1
16 08122 IR006  74.8
16 08129 IR006  58.7
@I  EFIR  IDEP  ITHR  IEPT  IOFF  IAME  IAMT IRNAME
17   -99   -99   -99   -99   -99   -99   -99 -99
@I IDATE  IROP IRVAL
17 08004 IR006  24.1
17 08005 IR006    48
17 08010 IR006  30.6
17 08011 IR006  21.5
17 08018 IR006  37.6
17 08025 IR006  36.9
17 08038 IR006   3.9
17 08038 IR006  15.7
17 08044 IR006  22.2
17 08045 IR006     9
17 08046 IR006   2.1
17 08053 IR006    22
17 08053 IR006   2.2
17 08059 IR006  66.4
17 08059 IR006   2.7
17 08067 IR006  48.6
17 08067 IR006   3.3
17 08073 IR006    17
17 08073 IR006   3.7
17 08074 IR006  15.9
17 08081 IR006  39.4
17 08081 IR006   4.3
17 08088 IR006  48.4
17 08088 IR006   5.1
17 08094 IR006  59.5
17 08094 IR006   5.9
17 08101 IR006    58
17 08108 IR006  56.2
17 08108 IR006   5.6
17 08115 IR006  45.4
17 08115 IR006   5.3
17 08122 IR006  87.8
17 08122 IR006   8.8
17 08129 IR006  57.8
17 08129 IR006   5.9
@I  EFIR  IDEP  ITHR  IEPT  IOFF  IAME  IAMT IRNAME
18   -99   -99   -99   -99   -99   -99   -99 -99
@I IDATE  IROP IRVAL
18 08004 IR006  24.3
18 08005 IR006  56.8
18 08010 IR006  35.9
18 08011 IR006  21.2
18 08018 IR006  37.5
18 08025 IR006  29.9
18 08038 IR006  17.9
18 08038 IR006   1.8
18 08044 IR006  22.4
18 08045 IR006  13.8
18 08046 IR006   2.2
18 08053 IR006   2.2
18 08053 IR006  22.4
18 08059 IR006  44.9
18 08059 IR006   2.7
18 08067 IR006  49.8
18 08067 IR006   3.5
18 08073 IR006  16.9
18 08073 IR006   3.4
18 08074 IR006  16.2
18 08081 IR006  40.4
18 08081 IR006   4.3
18 08088 IR006  48.2
18 08088 IR006   5.1
18 08094 IR006  58.8
18 08094 IR006   6.1
18 08101 IR006  58.5
18 08108 IR006   5.6
18 08108 IR006    61
18 08115 IR006  53.8
18 08115 IR006   5.3
18 08122 IR006  72.8
18 08122 IR006   7.3
18 08129 IR006  59.6
18 08129 IR006   5.9
@I  EFIR  IDEP  ITHR  IEPT  IOFF  IAME  IAMT IRNAME
19   -99   -99   -99   -99   -99   -99   -99 -99
@I IDATE  IROP IRVAL
19 08004 IR006  22.6
19 08005 IR006  54.6
19 08010 IR006  36.7
19 08011 IR006  21.8
19 08018 IR006  40.4
19 08025 IR006  41.5
19 08038 IR006  19.8
19 08038 IR006   2.1
19 08044 IR006  24.6
19 08046 IR006   2.2
19 08053 IR006    24
19 08053 IR006   2.2
19 08059 IR006  60.2
19 08059 IR006   2.7
19 08067 IR006  32.5
19 08067 IR006   3.3
19 08073 IR006  19.9
19 08073 IR006   3.7
19 08074 IR006    18
19 08081 IR006  34.1
19 08081 IR006   4.3
19 08088 IR006  51.7
19 08088 IR006   5.4
19 08094 IR006  58.8
19 08094 IR006   5.9
19 08101 IR006  60.1
19 08108 IR006  56.2
19 08108 IR006   5.6
19 08115 IR006  52.1
19 08115 IR006   5.3
19 08122 IR006  74.8
19 08122 IR006   7.5
19 08129 IR006   5.9
19 08129 IR006  58.7
@I  EFIR  IDEP  ITHR  IEPT  IOFF  IAME  IAMT IRNAME
20   -99   -99   -99   -99   -99   -99   -99 -99
@I IDATE  IROP IRVAL
20 08045 IR006  30.2
20 08046 IR006  49.9
20 08053 IR006    42
20 08059 IR006    33
20 08067 IR006  39.7
20 08074 IR006  31.3
20 08081 IR006  32.9
20 08087 IR006  46.7
20 08094 IR006  54.6
20 08105 IR006  46.4
20 08109 IR006  65.4
20 08116 IR006  58.8
20 08123 IR006  67.8
20 08129 IR006  69.6
20 08136 IR006  86.7
20 08144 IR006  16.3
@I  EFIR  IDEP  ITHR  IEPT  IOFF  IAME  IAMT IRNAME
21   -99   -99   -99   -99   -99   -99   -99 -99
@I IDATE  IROP IRVAL
21 08073 IR006 101.5
21 08081 IR006  45.9
21 08087 IR006  20.8
21 08095 IR006    26
21 08101 IR006 139.9
21 08108 IR006  46.3
21 08116 IR006  51.4
21 08123 IR006  69.8
21 08129 IR006  64.3
21 08136 IR006    60
21 08143 IR006    57
21 08150 IR006  49.2
21 08157 IR006  68.6
@I  EFIR  IDEP  ITHR  IEPT  IOFF  IAME  IAMT IRNAME
22   -99   -99   -99   -99   -99   -99   -99 -99
@I IDATE  IROP IRVAL
22 08073 IR006  99.6
22 08081 IR006  47.8
22 08087 IR006  20.6
22 08095 IR006  25.9
22 08101 IR006 138.3
22 08108 IR006  48.8
22 08116 IR006  53.3
22 08123 IR006    68
22 08129 IR006  64.4
22 08136 IR006  59.7
22 08143 IR006  57.7
22 08150 IR006    49
22 08157 IR006    68
@I  EFIR  IDEP  ITHR  IEPT  IOFF  IAME  IAMT IRNAME
23   -99   -99   -99   -99   -99   -99   -99 -99
@I IDATE  IROP IRVAL
23 08073 IR006 100.3
23 08081 IR006  47.4
23 08087 IR006  20.3
23 08095 IR006  25.9
23 08101 IR006 138.3
23 08108 IR006  48.7
23 08116 IR006  53.3
23 08123 IR006  67.7
23 08129 IR006  64.4
23 08136 IR006  59.9
23 08143 IR006  57.2
23 08150 IR006  48.5
23 08157 IR006  68.9
@I  EFIR  IDEP  ITHR  IEPT  IOFF  IAME  IAMT IRNAME
24   -99   -99   -99   -99   -99   -99   -99 -99
@I IDATE  IROP IRVAL
24 08073 IR006 101.5
24 08081 IR006  45.9
24 08087 IR006  20.8
24 08087 IR006   2.8
24 08095 IR006    26
24 08095 IR006   2.6
24 08101 IR006 139.9
24 08108 IR006  46.3
24 08109 IR006   5.6
24 08116 IR006  51.4
24 08116 IR006     6
24 08123 IR006  69.8
24 08123 IR006     8
24 08129 IR006  64.3
24 08130 IR006   9.6
24 08136 IR006    60
24 08136 IR006   7.5
24 08143 IR006    57
24 08143 IR006   7.1
24 08150 IR006  49.2
24 08150 IR006   7.7
24 08157 IR006  68.6
@I  EFIR  IDEP  ITHR  IEPT  IOFF  IAME  IAMT IRNAME
25   -99   -99   -99   -99   -99   -99   -99 -99
@I IDATE  IROP IRVAL
25 08073 IR006  99.6
25 08081 IR006  47.8
25 08087 IR006  20.6
25 08087 IR006   2.7
25 08095 IR006   2.6
25 08095 IR006  25.9
25 08101 IR006 138.3
25 08108 IR006  48.8
25 08109 IR006   5.5
25 08116 IR006  53.3
25 08116 IR006     6
25 08123 IR006    68
25 08123 IR006     8
25 08129 IR006  64.4
25 08130 IR006   9.6
25 08136 IR006  59.7
25 08136 IR006   7.1
25 08143 IR006  57.7
25 08143 IR006   7.1
25 08150 IR006    49
25 08150 IR006     7
25 08157 IR006    68
@I  EFIR  IDEP  ITHR  IEPT  IOFF  IAME  IAMT IRNAME
26   -99   -99   -99   -99   -99   -99   -99 -99
@I IDATE  IROP IRVAL
26 08073 IR006 100.3
26 08081 IR006  47.4
26 08087 IR006  20.3
26 08087 IR006   3.3
26 08095 IR006  25.9
26 08095 IR006   2.6
26 08101 IR006 138.3
26 08108 IR006  48.7
26 08109 IR006   5.5
26 08116 IR006  53.3
26 08116 IR006     6
26 08123 IR006  67.7
26 08123 IR006     8
26 08129 IR006  64.4
26 08130 IR006   9.6
26 08136 IR006  59.9
26 08136 IR006   7.1
26 08143 IR006  57.2
26 08143 IR006   7.1
26 08150 IR006  48.5
26 08150 IR006   6.9
26 08157 IR006  68.9
@I  EFIR  IDEP  ITHR  IEPT  IOFF  IAME  IAMT IRNAME
27   -99   -99   -99   -99   -99   -99   -99 -99
@I IDATE  IROP IRVAL
27 08122 IR006  70.5
27 08123 IR006  70.5
27 08129 IR006  99.7
27 08136 IR006  39.9
27 08150 IR006  26.3
27 08151 IR006  12.2
27 08157 IR006  63.9
27 08164 IR006  74.8
27 08165 IR006  99.7
27 08178 IR006  55.4
@I  EFIR  IDEP  ITHR  IEPT  IOFF  IAME  IAMT IRNAME
28   -99   -99   -99   -99   -99   -99   -99 -99
@I IDATE  IROP IRVAL
28 08240 IR006  99.7
28 08241 IR006  59.3
28 08247 IR006  50.9
28 08252 IR006  49.9
28 08256 IR006  63.1
28 08263 IR006  34.9
@I  EFIR  IDEP  ITHR  IEPT  IOFF  IAME  IAMT IRNAME
29   -99   -99   -99   -99   -99   -99   -99 -99
@I IDATE  IROP IRVAL
29 08281 IR006  52.1
29 08282 IR006  10.7
29 08283 IR006  53.6
29 08284 IR006  51.1
29 08290 IR006    52
29 08297 IR006    39
29 08304 IR006  31.6
29 08311 IR006  31.5
29 08318 IR006  27.2
29 08325 IR006  30.2
29 08333 IR006  19.9
29 08346 IR006    31
29 09008 IR006  15.2
29 09009 IR006  30.9
29 09023 IR006  39.8
29 09029 IR006  22.3
29 09036 IR006  24.4
29 09050 IR006  31.1
@I  EFIR  IDEP  ITHR  IEPT  IOFF  IAME  IAMT IRNAME
30   -99   -99   -99   -99   -99   -99   -99 -99
@I IDATE  IROP IRVAL
30 08281 IR006    59
30 08282 IR006  11.8
30 08283 IR006    56
30 08284 IR006  39.1
30 08290 IR006  54.3
30 08297 IR006  35.8
30 08304 IR006  29.9
30 08311 IR006  31.5
30 08318 IR006  27.3
30 08325 IR006  28.6
30 08333 IR006    20
30 08346 IR006    31
30 09009 IR006    44
30 09023 IR006  39.9
30 09029 IR006    22
30 09036 IR006  25.4
30 09050 IR006    31
@I  EFIR  IDEP  ITHR  IEPT  IOFF  IAME  IAMT IRNAME
31   -99   -99   -99   -99   -99   -99   -99 -99
@I IDATE  IROP IRVAL
31 08281 IR006  63.2
31 08282 IR006  12.4
31 08283 IR006  42.7
31 08284 IR006    48
31 08290 IR006  51.4
31 08297 IR006  39.9
31 08304 IR006  30.8
31 08311 IR006  31.5
31 08318 IR006  27.7
31 08325 IR006  30.7
31 08333 IR006  20.3
31 08346 IR006    31
31 09009 IR006  41.2
31 09023 IR006  40.5
31 09029 IR006    22
31 09036 IR006  26.9
31 09050 IR006  30.9
@I  EFIR  IDEP  ITHR  IEPT  IOFF  IAME  IAMT IRNAME
32   -99   -99   -99   -99   -99   -99   -99 -99
@I IDATE  IROP IRVAL
32 08281 IR006  52.1
32 08282 IR006  10.7
32 08283 IR006  53.6
32 08284 IR006  51.1
32 08290 IR006    52
32 08297 IR006    39
32 08304 IR006  31.6
32 08304 IR006   2.7
32 08311 IR006  31.5
32 08311 IR006   2.6
32 08318 IR006  27.2
32 08318 IR006     2
32 08325 IR006  30.2
32 08325 IR006   1.7
32 08333 IR006  19.9
32 08333 IR006   1.8
32 08346 IR006    31
32 08346 IR006   2.7
32 09008 IR006  15.2
32 09009 IR006  30.9
32 09009 IR006   1.2
32 09022 IR006   3.5
32 09023 IR006  39.8
32 09029 IR006  22.3
32 09029 IR006     2
32 09036 IR006  24.4
32 09036 IR006   2.2
32 09050 IR006  31.1
32 09050 IR006   2.7
@I  EFIR  IDEP  ITHR  IEPT  IOFF  IAME  IAMT IRNAME
33   -99   -99   -99   -99   -99   -99   -99 -99
@I IDATE  IROP IRVAL
33 08281 IR006    59
33 08282 IR006  11.8
33 08283 IR006    56
33 08284 IR006  39.1
33 08290 IR006  54.3
33 08297 IR006  35.8
33 08304 IR006   3.5
33 08304 IR006  29.9
33 08311 IR006  31.5
33 08311 IR006   2.8
33 08318 IR006  27.3
33 08318 IR006   2.2
33 08325 IR006  28.6
33 08325 IR006   1.8
33 08333 IR006    20
33 08333 IR006   2.3
33 08346 IR006    31
33 08346 IR006     3
33 09009 IR006    44
33 09009 IR006   1.1
33 09022 IR006   3.8
33 09023 IR006  39.9
33 09029 IR006    22
33 09029 IR006   2.1
33 09036 IR006  25.4
33 09036 IR006   3.1
33 09050 IR006    31
33 09050 IR006     3
@I  EFIR  IDEP  ITHR  IEPT  IOFF  IAME  IAMT IRNAME
34   -99   -99   -99   -99   -99   -99   -99 -99
@I IDATE  IROP IRVAL
34 08281 IR006  63.2
34 08282 IR006  12.4
34 08283 IR006  42.7
34 08284 IR006    48
34 08290 IR006  51.4
34 08297 IR006  39.9
34 08304 IR006   3.2
34 08304 IR006  30.8
34 08311 IR006  31.5
34 08311 IR006   2.8
34 08318 IR006  27.7
34 08318 IR006   2.2
34 08325 IR006  30.7
34 08325 IR006   2.1
34 08333 IR006  20.3
34 08333 IR006   2.1
34 08346 IR006    31
34 08346 IR006   2.9
34 09009 IR006  41.2
34 09009 IR006   1.3
34 09022 IR006   3.8
34 09023 IR006  40.5
34 09029 IR006    22
34 09029 IR006   2.2
34 09036 IR006  26.9
34 09036 IR006   2.2
34 09050 IR006  30.9
34 09050 IR006   3.1
@I  EFIR  IDEP  ITHR  IEPT  IOFF  IAME  IAMT IRNAME
35   -99   -99   -99   -99   -99   -99   -99 -99
@I IDATE  IROP IRVAL
35 08304 IR006  31.5
35 08306 IR006 124.4
35 08311 IR006 103.2
35 08318 IR006  27.2
35 08325 IR006  21.1
35 08333 IR006  20.3
35 08346 IR006  30.2
35 09009 IR006  45.8
35 09023 IR006  31.9
35 09029 IR006  22.1
35 09036 IR006  25.1
35 09050 IR006  35.2
35 09057 IR006  27.4
35 09064 IR006  37.5
35 09072 IR006  34.2
35 09078 IR006  36.3
35 09085 IR006  42.6
35 09092 IR006  37.9
35 09099 IR006  51.6
35 09107 IR006  35.9
@I  EFIR  IDEP  ITHR  IEPT  IOFF  IAME  IAMT IRNAME
36   -99   -99   -99   -99   -99   -99   -99 -99
@I IDATE  IROP IRVAL
36 08343 IR006 139.6
36 09012 IR006  31.3
36 09015 IR006  20.2
36 09016 IR006  12.7
36 09022 IR006  20.9
36 09030 IR006  24.3
36 09036 IR006    24
36 09050 IR006  35.1
36 09057 IR006  28.2
36 09064 IR006  37.1
36 09072 IR006  35.4
36 09078 IR006    38
36 09085 IR006  44.9
36 09092 IR006  59.4
36 09099 IR006  52.8
36 09106 IR006  46.9
36 09113 IR006  52.7
36 09120 IR006  53.5
@I  EFIR  IDEP  ITHR  IEPT  IOFF  IAME  IAMT IRNAME
37   -99   -99   -99   -99   -99   -99   -99 -99
@I IDATE  IROP IRVAL
37 08343 IR006   142
37 09012 IR006    30
37 09015 IR006  19.9
37 09016 IR006  12.4
37 09022 IR006  20.9
37 09030 IR006  24.1
37 09036 IR006  23.9
37 09050 IR006  35.1
37 09057 IR006  28.5
37 09064 IR006  34.5
37 09072 IR006    38
37 09078 IR006  38.1
37 09085 IR006  44.9
37 09092 IR006  59.5
37 09099 IR006    53
37 09106 IR006  46.9
37 09113 IR006  52.6
37 09120 IR006  53.8
@I  EFIR  IDEP  ITHR  IEPT  IOFF  IAME  IAMT IRNAME
38   -99   -99   -99   -99   -99   -99   -99 -99
@I IDATE  IROP IRVAL
38 08343 IR006 139.6
38 09012 IR006  26.3
38 09015 IR006  12.8
38 09016 IR006  12.2
38 09022 IR006    21
38 09030 IR006  22.4
38 09036 IR006  23.8
38 09050 IR006  35.5
38 09057 IR006  28.2
38 09064 IR006  37.1
38 09072 IR006  35.4
38 09078 IR006    38
38 09085 IR006  45.2
38 09092 IR006  59.4
38 09099 IR006  52.8
38 09106 IR006  46.9
38 09113 IR006  52.6
38 09120 IR006  52.9
@I  EFIR  IDEP  ITHR  IEPT  IOFF  IAME  IAMT IRNAME
39   -99   -99   -99   -99   -99   -99   -99 -99
@I IDATE  IROP IRVAL
39 08343 IR006 139.6
39 09012 IR006  31.3
39 09015 IR006  20.2
39 09015 IR006   1.9
39 09016 IR006  12.7
39 09022 IR006  20.9
39 09022 IR006   1.9
39 09030 IR006  24.3
39 09030 IR006   2.1
39 09036 IR006    24
39 09036 IR006   2.3
39 09050 IR006  35.1
39 09050 IR006   3.2
39 09057 IR006   2.6
39 09057 IR006  28.2
39 09064 IR006  37.1
39 09064 IR006   3.4
39 09072 IR006  35.4
39 09072 IR006   3.4
39 09078 IR006    38
39 09078 IR006   3.7
39 09085 IR006  44.9
39 09085 IR006   4.2
39 09092 IR006  59.4
39 09092 IR006   4.6
39 09099 IR006  52.8
39 09099 IR006   4.9
39 09106 IR006   4.3
39 09106 IR006  46.9
39 09113 IR006   4.8
39 09113 IR006  52.7
39 09120 IR006  53.5
@I  EFIR  IDEP  ITHR  IEPT  IOFF  IAME  IAMT IRNAME
40   -99   -99   -99   -99   -99   -99   -99 -99
@I IDATE  IROP IRVAL
40 08343 IR006   142
40 09012 IR006    30
40 09015 IR006  19.9
40 09015 IR006   1.9
40 09016 IR006  12.4
40 09022 IR006  20.9
40 09022 IR006     2
40 09030 IR006  24.1
40 09030 IR006   2.2
40 09036 IR006   2.3
40 09036 IR006  23.9
40 09050 IR006  35.1
40 09050 IR006   3.3
40 09057 IR006  28.5
40 09057 IR006   2.7
40 09064 IR006  34.5
40 09064 IR006   3.5
40 09072 IR006    38
40 09072 IR006   3.5
40 09078 IR006  38.1
40 09078 IR006   3.8
40 09085 IR006  44.9
40 09085 IR006   4.2
40 09092 IR006   4.7
40 09092 IR006  59.5
40 09099 IR006     5
40 09099 IR006    53
40 09106 IR006  46.9
40 09106 IR006   4.4
40 09113 IR006  52.6
40 09113 IR006   4.9
40 09120 IR006  53.8
@I  EFIR  IDEP  ITHR  IEPT  IOFF  IAME  IAMT IRNAME
41   -99   -99   -99   -99   -99   -99   -99 -99
@I IDATE  IROP IRVAL
41 08343 IR006 139.6
41 09012 IR006  26.3
41 09015 IR006  12.8
41 09015 IR006   1.9
41 09016 IR006  12.2
41 09022 IR006     2
41 09022 IR006    21
41 09030 IR006  22.4
41 09030 IR006   2.1
41 09036 IR006  23.8
41 09036 IR006   2.2
41 09050 IR006  35.5
41 09050 IR006   3.2
41 09057 IR006  28.2
41 09057 IR006   2.6
41 09064 IR006  37.1
41 09064 IR006   3.4
41 09072 IR006  35.4
41 09072 IR006   3.4
41 09078 IR006   3.7
41 09078 IR006    38
41 09085 IR006   4.2
41 09085 IR006  45.2
41 09092 IR006  59.4
41 09092 IR006   4.6
41 09099 IR006  52.8
41 09099 IR006   4.9
41 09106 IR006  46.9
41 09106 IR006   4.4
41 09113 IR006  52.6
41 09113 IR006   4.9
41 09120 IR006  52.9
@I  EFIR  IDEP  ITHR  IEPT  IOFF  IAME  IAMT IRNAME
42   -99   -99   -99   -99   -99   -99   -99 -99
@I IDATE  IROP IRVAL
42 09015 IR006  57.9
42 09016 IR006  46.3
42 09019 IR006  49.3
42 09029 IR006  20.4
42 09036 IR006  20.7